Circuit: * F:\Grad\24SP\MSE894\project\simulation\PDM_V1.asc

WARNING: Less than two connections to node sw5.  This node is used by b1.
WARNING: Less than two connections to node qzero.  This node is used by a1.
WARNING: Less than two connections to node qzero3.  This node is used by a2.
Direct Newton iteration for .op point succeeded.

Date: Sun Apr 14 14:20:16 2024
Total elapsed time: 0.577 seconds.

tnom = 27
temp = 27
method = modified trap
totiter = 61559
traniter = 61555
tranpoints = 30054
accept = 24950
rejected = 5104
matrix size = 18
fillins = 0
solver = Normal
Avg thread counts: 1.1/1.1/1.1/1.1
Matrix Compiler1: 422 bytes object code size  0.1/0.1/[0.1]
Matrix Compiler2: 832 bytes object code size  0.1/0.1/[0.1]

