Circuit: * THS4522

Fatal Error: No analysis request found.
