Circuit: * F:\Grad\24SP\MSE894\project\simulation\TransmissionPulse_Fully_Matched.asc

Error on line 10 : v4 switch1 0 v
	 Unknown parameter "v"
Error on line 14 : switch1 = if (v2 > v3, 1, 0)
	 Unable to find definition of model "1"
WARNING: Node V2 is floating.
WARNING: Node > is floating.
WARNING: Node V3 is floating.

WARNING: Less than two connections to node zerox_sig1.  This node is used by a1.
WARNING: Less than two connections to node n002.  This node is used by v2.
WARNING: Less than two connections to node n003.  This node is used by v3.
WARNING: Less than two connections to node switch1.  This node is used by v4.
WARNING: Less than two connections to node if.  This node is used by switch1.
WARNING: Less than two connections to node v2.  This node is used by switch1.
WARNING: Less than two connections to node >.  This node is used by switch1.
WARNING: Less than two connections to node v3.  This node is used by switch1.
v4: Missing value, assumed 0V @ DC
Direct Newton iteration for .op point succeeded.

Date: Sun Apr 14 01:59:45 2024
Total elapsed time: 9.013 seconds.

tnom = 27
temp = 27
method = modified trap
totiter = 423923
traniter = 423920
tranpoints = 211950
accept = 203904
rejected = 8046
matrix size = 17
fillins = 0
solver = Normal
Avg thread counts: 1.0/1.0/1.0/1.0
Matrix Compiler1: 354 bytes object code size  0.1/0.1/[0.1]
Matrix Compiler2: 757 bytes object code size  0.1/0.2/[0.1]

